omf/static/testFiles/3300 bus feeder with pv and storage/MasterNewNames3hr.dss
Clear

! Non-alpha-numeric, non-underscore characters in object names of original.dss have been changed by following scheme:
! . -> _dot_
! ( -> _op_
! ) -> _cp_
! - -> _dash_
! : -> _col_
! / -> _fs_
! # -> _num_

New Circuit.feeder_rdt1527_dash_rhs0_1247x 
edit object=vsource.source bus1=rdt1527_dash_rhs0_1247x pu=1.03 basekV=12.47 R1=1e-05 X1=1e-05 R0=1e-05 X0=1e-05

New object=Linecode.1P_OH_AL_4_Periwinkle_2 units=km nphases=2 Faultrate=0.1 Rmatrix=[1.7609666666666666,0.3959666666666668|0.3959666666666668,1.7609666666666666] Xmatrix=[0.6698333333333334,0.5686333333333333|0.5686333333333333,0.6698333333333334] Cmatrix=[36.92503333333334,-17.558966666666667|-17.558966666666667,36.92503333333334] normamps=115.0
New object=Linecode.1P_OH_AL_4_fs_0_Zuzara_2 units=km nphases=2 Faultrate=0.1 Rmatrix=[0.4728,0.20209999999999997|0.20209999999999997,0.4728] Xmatrix=[0.21353333333333335,0.12473333333333335|0.12473333333333335,0.21353333333333335] Cmatrix=[41.3578,-20.447400000000002|-20.447400000000002,41.3578] normamps=115.0
New object=Linecode.1P_OH_AL_2_fs_0_Rucina_2 units=km nphases=2 Faultrate=0.1 Rmatrix=[0.7166333333333332,0.28753333333333336|0.28753333333333336,0.7166333333333332] Xmatrix=[0.28883333333333333,0.1932333333333333|0.1932333333333333,0.28883333333333333] Cmatrix=[39.3595,-19.342100000000002|-19.342100000000002,39.3595] normamps=115.0
New object=Linecode.1P_UG_AL_4_fs_0_Sweetbriar_2 units=km nphases=2 Faultrate=0.1 Rmatrix=[0.5462333,0.2755333|0.2755333,0.5462333] Xmatrix=[0.2976,0.2043|0.2043,0.2976] Cmatrix=[39.3278,-18.6046|-18.6046,39.3278] normamps=301.0
New object=Linecode.1P_UG_AL_1_fs_0_Brenau_2 units=km nphases=2 Faultrate=0.1 Rmatrix=[0.9149,0.3744|0.3744,0.9149] Xmatrix=[0.4972667,0.3969667|0.3969667,0.4972667] Cmatrix=[36.4998,-16.313099999999995|-16.313099999999995,36.4998] normamps=205.0
New object=Linecode.1P_UG_AL_2_fs_0_Converse_2 units=km nphases=2 Faultrate=0.1 Rmatrix=[0.7793333,0.3503333|0.3503333,0.7793333] Xmatrix=[0.4209333,0.3231333|0.3231333,0.4209333] Cmatrix=[37.42527,-17.11183|-17.11183,37.42527] normamps=233.0
New object=Linecode.1P_OH_AL_ACSR__num_2_Sparrow_1 units=km nphases=1 Faultrate=0.1 Rmatrix=[1.0412] Xmatrix=[0.7627] Cmatrix=[7.69673] normamps=165.0
New object=Linecode.1P_UG_AL_1 units=km nphases=1 Faultrate=0.1 Rmatrix=[0.9176999999999998] Xmatrix=[0.9546999999999999] Cmatrix=[158.492] normamps=151.0
New object=Linecode.3P_UG_AL_3 units=km nphases=3 Faultrate=0.1 Rmatrix=[0.3289333,0.05923333,0.05923333|0.05923333,0.3289333,0.05923333|0.05923333,0.05923333,0.3289333] Xmatrix=[0.9076,0.6647,0.6647|0.6647,0.9076,0.6647|0.6647,0.6647,0.9076] Cmatrix=[120.289,-59.026,-59.026|-59.026,120.289,-59.026|-59.026,-59.026,120.289] normamps=295.0
New object=Linecode.3P_OH_AL_ACSR_4_fs_0_Penguin_3 units=km nphases=3 Faultrate=0.1 Rmatrix=[0.3635667,0.09006667,0.09006667|0.09006667,0.3635667,0.09006667|0.09006667,0.09006667,0.3635667] Xmatrix=[0.6385333,0.2202333,0.2202333|0.2202333,0.6385333,0.2202333|0.2202333,0.2202333,0.6385333] Cmatrix=[7.448267,-3.1846329999999994,-3.1846329999999994|-3.1846329999999994,7.448267,-3.1846329999999994|-3.1846329999999994,-3.1846329999999994,7.448267] normamps=325.0
New object=Linecode.3P_UG_AL_350kcmil_3_1 units=km nphases=3 Faultrate=0.1 Rmatrix=[0.3388667,0.1744667,0.1744667|0.1744667,0.3388667,0.1744667|0.1744667,0.1744667,0.3388667] Xmatrix=[0.5126,0.2912,0.2912|0.2912,0.5126,0.2912|0.2912,0.2912,0.5126] Cmatrix=[164.365,-81.63499999999999,-81.63499999999999|-81.63499999999999,164.365,-81.63499999999999|-81.63499999999999,-81.63499999999999,164.365] normamps=370.0
New object=Linecode.3P_OH_AL_ACSR_1033kcmil_Curlew_3 units=km nphases=3 Faultrate=0.1 Rmatrix=[0.0871,0.0296,0.0296|0.0296,0.0871,0.0296|0.0296,0.0296,0.0871] Xmatrix=[0.5382333,0.1839333,0.1839333|0.1839333,0.5382333,0.1839333|0.1839333,0.1839333,0.5382333] Cmatrix=[8.6745,-3.8842,-3.8842|-3.8842,8.6745,-3.8842|-3.8842,-3.8842,8.6745] normamps=960.0
New object=Linecode.padswitch_1 units=km nphases=1 Faultrate=0.1 Rmatrix=[0.001] Xmatrix=[0.001] Cmatrix=[3.608924] normamps=151.0
New object=Linecode.padswitch_1_1 units=km nphases=1 Faultrate=0.1 Rmatrix=[0.001] Xmatrix=[0.001] Cmatrix=[3.608924] normamps=205.0
New object=Linecode.padswitch_1_2 units=km nphases=1 Faultrate=0.1 Rmatrix=[0.001] Xmatrix=[0.001] Cmatrix=[3.608924] normamps=301.0
New object=Linecode.padswitch_1_3 units=km nphases=1 Faultrate=0.1 Rmatrix=[0.001] Xmatrix=[0.001] Cmatrix=[3.608924] normamps=165.0
New object=Linecode.padswitch_1_4 units=km nphases=1 Faultrate=0.1 Rmatrix=[0.001] Xmatrix=[0.001] Cmatrix=[3.608924] normamps=115.0
New object=Linecode.padswitch_1_5 units=km nphases=1 Faultrate=0.1 Rmatrix=[0.001] Xmatrix=[0.001] Cmatrix=[3.608924] normamps=233.0
New object=Linecode.padswitch_3 units=km nphases=3 Faultrate=0.1 Rmatrix=[0.001,0.0,0.0|0.0,0.001,0.0|0.0,0.0,0.001] Xmatrix=[0.001,0.0,0.0|0.0,0.001,0.0|0.0,0.0,0.001] Cmatrix=[3.499563,-0.1093613,-0.1093613|-0.1093613,3.499563,-0.1093613|-0.1093613,-0.1093613,3.499563] normamps=295.0
New object=Linecode.padswitch_3_1 units=km nphases=3 Faultrate=0.1 Rmatrix=[0.001,0.0,0.0|0.0,0.001,0.0|0.0,0.0,0.001] Xmatrix=[0.001,0.0,0.0|0.0,0.001,0.0|0.0,0.0,0.001] Cmatrix=[3.499563,-0.1093613,-0.1093613|-0.1093613,3.499563,-0.1093613|-0.1093613,-0.1093613,3.499563] normamps=301.0
New object=Linecode.padswitch_3_8 units=km nphases=3 Faultrate=0.1 Rmatrix=[0.001,0.0,0.0|0.0,0.001,0.0|0.0,0.0,0.001] Xmatrix=[0.001,0.0,0.0|0.0,0.001,0.0|0.0,0.0,0.001] Cmatrix=[3.499563,-0.1093613,-0.1093613|-0.1093613,3.499563,-0.1093613|-0.1093613,-0.1093613,3.499563] normamps=205.0
New object=Linecode.padswitch_3_4 units=km nphases=3 Faultrate=0.1 Rmatrix=[0.001,0.0,0.0|0.0,0.001,0.0|0.0,0.0,0.001] Xmatrix=[0.001,0.0,0.0|0.0,0.001,0.0|0.0,0.0,0.001] Cmatrix=[3.499563,-0.1093613,-0.1093613|-0.1093613,3.499563,-0.1093613|-0.1093613,-0.1093613,3.499563] normamps=325.0
New object=Linecode.padswitch_3_6 units=km nphases=3 Faultrate=0.1 Rmatrix=[0.001,0.0,0.0|0.0,0.001,0.0|0.0,0.0,0.001] Xmatrix=[0.001,0.0,0.0|0.0,0.001,0.0|0.0,0.0,0.001] Cmatrix=[3.499563,-0.1093613,-0.1093613|-0.1093613,3.499563,-0.1093613|-0.1093613,-0.1093613,3.499563] normamps=151.0
New object=Linecode.padswitch_3_9 units=km nphases=3 Faultrate=0.1 Rmatrix=[0.001,0.0,0.0|0.0,0.001,0.0|0.0,0.0,0.001] Xmatrix=[0.001,0.0,0.0|0.0,0.001,0.0|0.0,0.0,0.001] Cmatrix=[3.499563,-0.1093613,-0.1093613|-0.1093613,3.499563,-0.1093613|-0.1093613,-0.1093613,3.499563] normamps=233.0
New object=Linecode.padswitch_3_7 units=km nphases=3 Faultrate=0.1 Rmatrix=[0.001,0.0,0.0|0.0,0.001,0.0|0.0,0.0,0.001] Xmatrix=[0.001,0.0,0.0|0.0,0.001,0.0|0.0,0.0,0.001] Cmatrix=[3.499563,-0.1093613,-0.1093613|-0.1093613,3.499563,-0.1093613|-0.1093613,-0.1093613,3.499563] normamps=115.0
New object=Linecode.padswitch_3_10 units=km nphases=3 Faultrate=0.1 Rmatrix=[0.001,0.0,0.0|0.0,0.001,0.0|0.0,0.0,0.001] Xmatrix=[0.001,0.0,0.0|0.0,0.001,0.0|0.0,0.0,0.001] Cmatrix=[3.499563,-0.1093613,-0.1093613|-0.1093613,3.499563,-0.1093613|-0.1093613,-0.1093613,3.499563] normamps=165.0
New object=Linecode.padswitch_3_3 units=km nphases=3 Faultrate=0.1 Rmatrix=[0.001,0.0,0.0|0.0,0.001,0.0|0.0,0.0,0.001] Xmatrix=[0.001,0.0,0.0|0.0,0.001,0.0|0.0,0.0,0.001] Cmatrix=[3.499563,-0.1093613,-0.1093613|-0.1093613,3.499563,-0.1093613|-0.1093613,-0.1093613,3.499563] normamps=370.0
New object=Linecode.elbswitch_3 units=km nphases=3 Faultrate=0.1 Rmatrix=[0.001,0.0,0.0|0.0,0.001,0.0|0.0,0.0,0.001] Xmatrix=[0.001,0.0,0.0|0.0,0.001,0.0|0.0,0.0,0.001] Cmatrix=[3.499563,-0.1093613,-0.1093613|-0.1093613,3.499563,-0.1093613|-0.1093613,-0.1093613,3.499563] normamps=325.0
New object=Linecode.fuse_1_3 units=km nphases=1 Faultrate=0.1 Rmatrix=[0.001] Xmatrix=[0.001] Cmatrix=[3.4] normamps=325.0
New object=Linecode.fuse_1_4 units=km nphases=1 Faultrate=0.1 Rmatrix=[0.001] Xmatrix=[0.001] Cmatrix=[3.4] normamps=165.0
New object=Linecode.fuse_1_6 units=km nphases=1 Faultrate=0.1 Rmatrix=[0.001] Xmatrix=[0.001] Cmatrix=[3.4] normamps=115.0
New object=Linecode.fuse_1_2 units=km nphases=1 Faultrate=0.1 Rmatrix=[0.001] Xmatrix=[0.001] Cmatrix=[3.4] normamps=151.0
New object=Linecode.fuse_1_5 units=km nphases=1 Faultrate=0.1 Rmatrix=[0.001] Xmatrix=[0.001] Cmatrix=[3.4] normamps=205.0
New object=Linecode.fuse_1 units=km nphases=1 Faultrate=0.1 Rmatrix=[0.001] Xmatrix=[0.001] Cmatrix=[3.4] normamps=295.0
New object=Linecode.fuse_1_8 units=km nphases=1 Faultrate=0.1 Rmatrix=[0.001] Xmatrix=[0.001] Cmatrix=[3.4] normamps=370.0
New object=Linecode.fuse_1_1 units=km nphases=1 Faultrate=0.1 Rmatrix=[0.001] Xmatrix=[0.001] Cmatrix=[3.4] normamps=233.0
New object=Linecode.recloser_3 units=km nphases=3 Faultrate=0.1 Rmatrix=[0.001,0.0,0.0|0.0,0.001,0.0|0.0,0.0,0.001] Xmatrix=[0.001,0.0,0.0|0.0,0.001,0.0|0.0,0.0,0.001] Cmatrix=[3.499563,-0.1093613,-0.1093613|-0.1093613,3.499563,-0.1093613|-0.1093613,-0.1093613,3.499563] normamps=115.0
New object=Linecode.goab_disswitch_3 units=km nphases=3 Faultrate=0.1 Rmatrix=[0.001,0.0,0.0|0.0,0.001,0.0|0.0,0.0,0.001] Xmatrix=[0.001,0.0,0.0|0.0,0.001,0.0|0.0,0.0,0.001] Cmatrix=[3.499563,-0.1093613,-0.1093613|-0.1093613,3.499563,-0.1093613|-0.1093613,-0.1093613,3.499563] normamps=325.0
New object=Linecode.goab_disswitch_3_1 units=km nphases=3 Faultrate=0.1 Rmatrix=[0.001,0.0,0.0|0.0,0.001,0.0|0.0,0.0,0.001] Xmatrix=[0.001,0.0,0.0|0.0,0.001,0.0|0.0,0.0,0.001] Cmatrix=[3.499563,-0.1093613,-0.1093613|-0.1093613,3.499563,-0.1093613|-0.1093613,-0.1093613,3.499563] normamps=115.0
New object=Linecode.recloser_3_1 units=km nphases=3 Faultrate=0.1 Rmatrix=[0.001,0.0,0.0|0.0,0.001,0.0|0.0,0.0,0.001] Xmatrix=[0.001,0.0,0.0|0.0,0.001,0.0|0.0,0.0,0.001] Cmatrix=[3.499563,-0.1093613,-0.1093613|-0.1093613,3.499563,-0.1093613|-0.1093613,-0.1093613,3.499563] normamps=325.0

New object=Line.l_op_r_col_p1rlv1359_dash_rdt793lv_cp_ Units=km Length=0.001 bus1=rdt793lv.1.2 bus2=p1rlv1359.1.2 switch=n enabled=y phases=2 Linecode=1P_OH_AL_4_Periwinkle_2
New object=Line.l_op_r_col_p1rlv1360_dash_rdt794lv_cp_ Units=km Length=0.0555307 bus1=rdt794lv.1.2 bus2=p1rlv1360.1.2 switch=n enabled=y phases=2 Linecode=1P_OH_AL_4_fs_0_Zuzara_2
New object=Line.l_op_r_col_p1rlv1361_dash_rdt794lv_cp_ Units=km Length=0.0116259 bus1=rdt794lv.1.2 bus2=p1rlv1361.1.2 switch=n enabled=y phases=2 Linecode=1P_OH_AL_2_fs_0_Rucina_2
New object=Line.l_op_r_col_p1rlv1362_dash_rdt794lv_cp_ Units=km Length=0.0573582 bus1=rdt794lv.1.2 bus2=p1rlv1362.1.2 switch=n enabled=y phases=2 Linecode=1P_OH_AL_4_fs_0_Zuzara_2
New object=Line.l_op_r_col_p1rlv1363_dash_rdt794lv_cp_ Units=km Length=0.0310381 bus1=rdt794lv.1.2 bus2=p1rlv1363.1.2 switch=n enabled=y phases=2 Linecode=1P_OH_AL_4_fs_0_Zuzara_2
New object=Line.l_op_r_col_p1rlv1364_dash_rdt794lv_cp_ Units=km Length=0.0300463 bus1=rdt794lv.1.2 bus2=p1rlv1364.1.2 switch=n enabled=y phases=2 Linecode=1P_OH_AL_4_fs_0_Zuzara_2
New object=Line.l_op_r_col_p1rlv1365_dash_rdt795lv_cp_ Units=km Length=0.0638579 bus1=rdt795lv.1.2 bus2=p1rlv1365.1.2 switch=n enabled=y phases=2 Linecode=1P_OH_AL_4_fs_0_Zuzara_2
New object=Line.l_op_r_col_p1rlv1367_dash_rdt797lv_cp_ Units=km Length=0.0944191 bus1=rdt797lv.1.2 bus2=p1rlv1367.1.2 switch=n enabled=y phases=2 Linecode=1P_OH_AL_4_fs_0_Zuzara_2
New object=Line.l_op_r_col_p1rlv1904_dash_rdt798lv_cp_ Units=km Length=0.0400051 bus1=rdt798lv.1.2 bus2=p1rlv1904.1.2 switch=n enabled=y phases=2 Linecode=1P_OH_AL_4_fs_0_Zuzara_2
New object=Line.l_op_r_col_p1rlv1368_dash_rdm1368_cp_ Units=km Length=0.0998495 bus1=rdm1368.1.2 bus2=p1rlv1368.1.2 switch=n enabled=y phases=2 Linecode=1P_OH_AL_4_fs_0_Zuzara_2
New object=Line.l_op_r_col_p1rlv1905_dash_rdm1368_cp_ Units=km Length=0.0741747 bus1=rdm1368.1.2 bus2=p1rlv1905.1.2 switch=n enabled=y phases=2 Linecode=1P_OH_AL_4_fs_0_Zuzara_2
New object=Line.l_op_r_col_rdm1368_dash_rdt798lv_cp_ Units=km Length=0.0136689 bus1=rdt798lv.1.2 bus2=rdm1368.1.2 switch=n enabled=y phases=2 Linecode=1P_OH_AL_2_fs_0_Rucina_2
New object=Line.l_op_r_col_p1rlv1906_dash_rdm1371_cp_ Units=km Length=0.0839823 bus1=rdm1371.1.2 bus2=p1rlv1906.1.2 switch=n enabled=y phases=2 Linecode=1P_OH_AL_4_fs_0_Zuzara_2
New object=Line.l_op_r_col_rdm1371_dash_rdt798lv_cp_ Units=km Length=0.0182684 bus1=rdt798lv.1.2 bus2=rdm1371.1.2 switch=n enabled=y phases=2 Linecode=1P_OH_AL_2_fs_0_Rucina_2
New object=Line.l_op_r_col_p1rlv1372_dash_rdt800lv_cp_ Units=km Length=0.0386918 bus1=rdt800lv.1.2 bus2=p1rlv1372.1.2 switch=n enabled=y phases=2 Linecode=1P_UG_AL_4_fs_0_Sweetbriar_2
New object=Line.l_op_r_col_p1rlv1863_dash_rdt1110lv_cp_ Units=km Length=0.0918124 bus1=rdt1110lv.1.2 bus2=p1rlv1863.1.2 switch=n enabled=y phases=2 Linecode=1P_UG_AL_1_fs_0_Brenau_2
New object=Line.l_op_r_col_p1rlv1862_dash_rdm1866_cp_ Units=km Length=0.0412737 bus1=rdm1866.1.2 bus2=p1rlv1862.1.2 switch=n enabled=y phases=2 Linecode=1P_OH_AL_4_fs_0_Zuzara_2
New object=Line.l_op_r_col_rdm1866_dash_rdt1110lv_cp_ Units=km Length=0.0161444 bus1=rdt1110lv.1.2 bus2=rdm1866.1.2 switch=n enabled=y phases=2 Linecode=1P_OH_AL_2_fs_0_Rucina_2
New object=Line.l_op_r_col_p1rlv1864_dash_rdm1868_cp_ Units=km Length=0.0681341 bus1=rdm1868.1.2 bus2=p1rlv1864.1.2 switch=n enabled=y phases=2 Linecode=1P_OH_AL_4_fs_0_Zuzara_2
New object=Line.l_op_r_col_rdm1868_dash_rdt1110lv_cp_ Units=km Length=0.0277124 bus1=rdt1110lv.1.2 bus2=rdm1868.1.2 switch=n enabled=y phases=2 Linecode=1P_OH_AL_4_fs_0_Zuzara_2
New object=Line.l_op_r_col_p1rlv1865_dash_rdt1111lv_cp_ Units=km Length=0.0370739 bus1=rdt1111lv.1.2 bus2=p1rlv1865.1.2 switch=n enabled=y phases=2 Linecode=1P_OH_AL_4_fs_0_Zuzara_2
New object=Line.l_op_r_col_p1rlv1868_dash_rdt1114lv_cp_ Units=km Length=0.001 bus1=rdt1114lv.1.2 bus2=p1rlv1868.1.2 switch=n enabled=y phases=2 Linecode=1P_OH_AL_4_Periwinkle_2
New object=Line.l_op_r_col_p1rlv1869_dash_rdt1115lv_cp_ Units=km Length=0.001 bus1=rdt1115lv.1.2 bus2=p1rlv1869.1.2 switch=n enabled=y phases=2 Linecode=1P_UG_AL_1_fs_0_Brenau_2
New object=Line.l_op_r_col_p1rlv1870_dash_rdm1874_cp_ Units=km Length=0.0441275 bus1=rdm1874.1.2 bus2=p1rlv1870.1.2 switch=n enabled=y phases=2 Linecode=1P_OH_AL_4_fs_0_Zuzara_2
New object=Line.l_op_r_col_rdm1874_dash_rdt1116lv_cp_ Units=km Length=0.0160778 bus1=rdt1116lv.1.2 bus2=rdm1874.1.2 switch=n enabled=y phases=2 Linecode=1P_OH_AL_2_fs_0_Rucina_2
New object=Line.l_op_r_col_p1rlv1871_dash_rdm1875_cp_ Units=km Length=0.0696996 bus1=rdm1875.1.2 bus2=p1rlv1871.1.2 switch=n enabled=y phases=2 Linecode=1P_OH_AL_4_fs_0_Zuzara_2
New object=Line.l_op_r_col_rdm1875_dash_rdt1116lv_cp_ Units=km Length=0.0160875 bus1=rdt1116lv.1.2 bus2=rdm1875.1.2 switch=n enabled=y phases=2 Linecode=1P_OH_AL_2_fs_0_Rucina_2
New object=Line.l_op_r_col_p1rlv1872_dash_rdm1876_cp_ Units=km Length=0.0947969 bus1=rdm1876.1.2 bus2=p1rlv1872.1.2 switch=n enabled=y phases=2 Linecode=1P_OH_AL_4_fs_0_Zuzara_2
New object=Line.l_op_r_col_rdm1876_dash_rdt1117lv_cp_ Units=km Length=0.0193076 bus1=rdt1117lv.1.2 bus2=rdm1876.1.2 switch=n enabled=y phases=2 Linecode=1P_OH_AL_2_fs_0_Rucina_2
New object=Line.l_op_r_col_p1rlv1873_dash_rdm1877_cp_ Units=km Length=0.0782976 bus1=rdm1877.1.2 bus2=p1rlv1873.1.2 switch=n enabled=y phases=2 Linecode=1P_OH_AL_4_fs_0_Zuzara_2
New object=Line.l_op_r_col_rdm1877_dash_rdt1117lv_cp_ Units=km Length=0.019316 bus1=rdt1117lv.1.2 bus2=rdm1877.1.2 switch=n enabled=y phases=2 Linecode=1P_OH_AL_2_fs_0_Rucina_2
New object=Line.l_op_r_col_p1rlv1874_dash_rdt1118lv_cp_ Units=km Length=0.0302837 bus1=rdt1118lv.1.2 bus2=p1rlv1874.1.2 switch=n enabled=y phases=2 Linecode=1P_OH_AL_4_fs_0_Zuzara_2
New object=Line.l_op_r_col_p1rlv1875_dash_rdt1119lv_cp_ Units=km Length=0.039782 bus1=rdt1119lv.1.2 bus2=p1rlv1875.1.2 switch=n enabled=y phases=2 Linecode=1P_OH_AL_4_fs_0_Zuzara_2
New object=Line.l_op_r_col_p1rlv1876_dash_rdt1119lv_cp_ Units=km Length=0.0628104 bus1=rdt1119lv.1.2 bus2=p1rlv1876.1.2 switch=n enabled=y phases=2 Linecode=1P_OH_AL_4_fs_0_Zuzara_2
New object=Line.l_op_r_col_p1rlv1877_dash_rdm1881_cp_ Units=km Length=0.0967 bus1=rdm1881.1.2 bus2=p1rlv1877.1.2 switch=n enabled=y phases=2 Linecode=1P_OH_AL_4_fs_0_Zuzara_2
New object=Line.l_op_r_col_rdm1881_dash_rdt1119lv_cp_ Units=km Length=0.019316 bus1=rdt1119lv.1.2 bus2=rdm1881.1.2 switch=n enabled=y phases=2 Linecode=1P_OH_AL_2_fs_0_Rucina_2
New object=Line.l_op_r_col_p1rlv1878_dash_rdt1120lv_cp_ Units=km Length=0.014846 bus1=rdt1120lv.1.2 bus2=p1rlv1878.1.2 switch=n enabled=y phases=2 Linecode=1P_OH_AL_2_fs_0_Rucina_2
New object=Line.l_op_r_col_p1rlv1879_dash_rdt1120lv_cp_ Units=km Length=0.001 bus1=rdt1120lv.1.2 bus2=p1rlv1879.1.2 switch=n enabled=y phases=2 Linecode=1P_OH_AL_4_Periwinkle_2
New object=Line.l_op_r_col_p1rlv1880_dash_rdt1120lv_cp_ Units=km Length=0.014281 bus1=rdt1120lv.1.2 bus2=p1rlv1880.1.2 switch=n enabled=y phases=2 Linecode=1P_OH_AL_2_fs_0_Rucina_2
New object=Line.l_op_r_col_p1rlv1881_dash_rdt1121lv_cp_ Units=km Length=0.0243911 bus1=rdt1121lv.1.2 bus2=p1rlv1881.1.2 switch=n enabled=y phases=2 Linecode=1P_OH_AL_2_fs_0_Rucina_2
New object=Line.l_op_r_col_p1rlv1882_dash_rdt1121lv_cp_ Units=km Length=0.00389787 bus1=rdt1121lv.1.2 bus2=p1rlv1882.1.2 switch=n enabled=y phases=2 Linecode=1P_OH_AL_4_Periwinkle_2
New object=Line.l_op_r_col_p1rlv1883_dash_rdt1121lv_cp_ Units=km Length=0.028201 bus1=rdt1121lv.1.2 bus2=p1rlv1883.1.2 switch=n enabled=y phases=2 Linecode=1P_OH_AL_4_fs_0_Zuzara_2
New object=Line.l_op_r_col_p1rlv1888_dash_rdt1124lv_cp_ Units=km Length=0.001 bus1=rdt1124lv.1.2 bus2=p1rlv1888.1.2 switch=n enabled=y phases=2 Linecode=1P_OH_AL_4_Periwinkle_2
New object=Line.l_op_r_col_p1rlv1889_dash_rdt1125lv_cp_ Units=km Length=0.0314263 bus1=rdt1125lv.1.2 bus2=p1rlv1889.1.2 switch=n enabled=y phases=2 Linecode=1P_OH_AL_4_fs_0_Zuzara_2
New object=Line.l_op_r_col_p1rlv1890_dash_rdt1125lv_cp_ Units=km Length=0.00844213 bus1=rdt1125lv.1.2 bus2=p1rlv1890.1.2 switch=n enabled=y phases=2 Linecode=1P_OH_AL_2_fs_0_Rucina_2
New object=Line.l_op_r_col_p1rlv1891_dash_rdt1125lv_cp_ Units=km Length=0.023029 bus1=rdt1125lv.1.2 bus2=p1rlv1891.1.2 switch=n enabled=y phases=2 Linecode=1P_OH_AL_2_fs_0_Rucina_2
New object=Line.l_op_r_col_p1rlv1892_dash_rdt1126lv_cp_ Units=km Length=0.0171313 bus1=rdt1126lv.1.2 bus2=p1rlv1892.1.2 switch=n enabled=y phases=2 Linecode=1P_OH_AL_2_fs_0_Rucina_2
New object=Line.l_op_r_col_p1rlv1893_dash_rdt1127lv_cp_ Units=km Length=0.0470495 bus1=rdt1127lv.1.2 bus2=p1rlv1893.1.2 switch=n enabled=y phases=2 Linecode=1P_OH_AL_4_fs_0_Zuzara_2
New object=Line.l_op_r_col_p1rlv1894_dash_rdt1128lv_cp_ Units=km Length=0.0673578 bus1=rdt1128lv.1.2 bus2=p1rlv1894.1.2 switch=n enabled=y phases=2 Linecode=1P_OH_AL_4_fs_0_Zuzara_2
New object=Line.l_op_r_col_p1rlv1895_dash_rdt1129lv_cp_ Units=km Length=0.0112612 bus1=rdt1129lv.1.2 bus2=p1rlv1895.1.2 switch=n enabled=y phases=2 Linecode=1P_OH_AL_2_fs_0_Rucina_2
New object=Line.l_op_r_col_p1rlv1896_dash_rdt1130lv_cp_ Units=km Length=0.06946540000000001 bus1=rdt1130lv.1.2 bus2=p1rlv1896.1.2 switch=n enabled=y phases=2 Linecode=1P_OH_AL_4_fs_0_Zuzara_2
New object=Line.l_op_r_col_p1rlv1897_dash_rdt1131lv_cp_ Units=km Length=0.0336707 bus1=rdt1131lv.1.2 bus2=p1rlv1897.1.2 switch=n enabled=y phases=2 Linecode=1P_OH_AL_4_fs_0_Zuzara_2
New object=Line.l_op_r_col_p1rlv1898_dash_rdm1902_cp_ Units=km Length=0.0161159 bus1=rdm1902.1.2 bus2=p1rlv1898.1.2 switch=n enabled=y phases=2 Linecode=1P_OH_AL_2_fs_0_Rucina_2
New object=Line.l_op_r_col_rdm1902_dash_rdt1131lv_cp_ Units=km Length=0.0159021 bus1=rdt1131lv.1.2 bus2=rdm1902.1.2 switch=n enabled=y phases=2 Linecode=1P_OH_AL_2_fs_0_Rucina_2
New object=Line.l_op_r_col_p1rlv1899_dash_rdt1132lv_cp_ Units=km Length=0.0477475 bus1=rdt1132lv.1.2 bus2=p1rlv1899.1.2 switch=n enabled=y phases=2 Linecode=1P_OH_AL_4_fs_0_Zuzara_2
New object=Line.l_op_r_col_p1rlv1900_dash_rdt1133lv_cp_ Units=km Length=0.0043960200000000005 bus1=rdt1133lv.1.2 bus2=p1rlv1900.1.2 switch=n enabled=y phases=2 Linecode=1P_OH_AL_2_fs_0_Rucina_2
New object=Line.l_op_r_col_p1rlv1901_dash_rdt1134lv_cp_ Units=km Length=0.0421201 bus1=rdt1134lv.1.2 bus2=p1rlv1901.1.2 switch=n enabled=y phases=2 Linecode=1P_OH_AL_4_fs_0_Zuzara_2
New object=Line.l_op_r_col_p1rlv1902_dash_rdt1135lv_cp_ Units=km Length=0.0474181 bus1=rdt1135lv.1.2 bus2=p1rlv1902.1.2 switch=n enabled=y phases=2 Linecode=1P_OH_AL_4_fs_0_Zuzara_2
New object=Line.l_op_r_col_p1rlv1903_dash_rdt1136lv_cp_ Units=km Length=0.0197766 bus1=rdt1136lv.1.2 bus2=p1rlv1903.1.2 switch=n enabled=y phases=2 Linecode=1P_OH_AL_2_fs_0_Rucina_2
New object=Line.l_op_r_col_p1rlv1907_dash_rdt1137lv_cp_ Units=km Length=0.001 bus1=rdt1137lv.1.2 bus2=p1rlv1907.1.2 switch=n enabled=y phases=2 Linecode=1P_OH_AL_4_Periwinkle_2
New object=Line.l_op_r_col_p1rlv1908_dash_rdt1138lv_cp_ Units=km Length=0.001 bus1=rdt1138lv.1.2 bus2=p1rlv1908.1.2 switch=n enabled=y phases=2 Linecode=1P_OH_AL_4_Periwinkle_2
New object=Line.l_op_r_col_p1rlv1912_dash_rdm1911_cp_ Units=km Length=0.0212665 bus1=rdm1911.1.2 bus2=p1rlv1912.1.2 switch=n enabled=y phases=2 Linecode=1P_OH_AL_2_fs_0_Rucina_2
New object=Line.l_op_r_col_p1rlv1909_dash_rdm1910_cp_ Units=km Length=0.0329383 bus1=rdm1910.1.2 bus2=p1rlv1909.1.2 switch=n enabled=y phases=2 Linecode=1P_OH_AL_4_fs_0_Zuzara_2
New object=Line.l_op_r_col_rdm1910_dash_rdm1911_cp_ Units=km Length=0.0430685 bus1=rdm1911.1.2 bus2=rdm1910.1.2 switch=n enabled=y phases=2 Linecode=1P_OH_AL_4_fs_0_Zuzara_2
New object=Line.l_op_r_col_rdm1911_dash_rdt1139lv_cp_ Units=km Length=0.0154819 bus1=rdt1139lv.1.2 bus2=rdm1911.1.2 switch=n enabled=y phases=2 Linecode=1P_OH_AL_2_fs_0_Rucina_2
New object=Line.l_op_r_col_p1rlv1913_dash_rdm1912_cp_ Units=km Length=0.0188495 bus1=rdm1912.1.2 bus2=p1rlv1913.1.2 switch=n enabled=y phases=2 Linecode=1P_OH_AL_2_fs_0_Rucina_2
New object=Line.l_op_r_col_p1rlv1914_dash_rdm1913_cp_ Units=km Length=0.0043644 bus1=rdm1913.1.2 bus2=p1rlv1914.1.2 switch=n enabled=y phases=2 Linecode=1P_OH_AL_2_fs_0_Rucina_2
New object=Line.l_op_r_col_rdm1912_dash_rdm1913_cp_ Units=km Length=0.0476617 bus1=rdm1912.1.2 bus2=rdm1913.1.2 switch=n enabled=y phases=2 Linecode=1P_OH_AL_4_fs_0_Zuzara_2
New object=Line.l_op_r_col_rdm1912_dash_rdt1139lv_cp_ Units=km Length=0.0262989 bus1=rdt1139lv.1.2 bus2=rdm1912.1.2 switch=n enabled=y phases=2 Linecode=1P_OH_AL_2_fs_0_Rucina_2
New object=Line.l_op_r_col_p1rlv1910_dash_rdt1140lv_cp_ Units=km Length=0.012899600000000002 bus1=rdt1140lv.1.2 bus2=p1rlv1910.1.2 switch=n enabled=y phases=2 Linecode=1P_OH_AL_2_fs_0_Rucina_2
New object=Line.l_op_r_col_p1rlv1911_dash_rdt1140lv_cp_ Units=km Length=0.0235244 bus1=rdt1140lv.1.2 bus2=p1rlv1911.1.2 switch=n enabled=y phases=2 Linecode=1P_OH_AL_2_fs_0_Rucina_2
New object=Line.l_op_r_col_p1rlv1916_dash_rdt1141lv_cp_ Units=km Length=0.0623258 bus1=rdt1141lv.1.2 bus2=p1rlv1916.1.2 switch=n enabled=y phases=2 Linecode=1P_OH_AL_4_fs_0_Zuzara_2
New object=Line.l_op_r_col_p1rlv1915_dash_rdm1916_cp_ Units=km Length=0.0381318 bus1=rdm1916.1.2 bus2=p1rlv1915.1.2 switch=n enabled=y phases=2 Linecode=1P_UG_AL_1_fs_0_Brenau_2
New object=Line.l_op_r_col_rdm1916_dash_rdt1141lv_cp_ Units=km Length=0.0108759 bus1=rdt1141lv.1.2 bus2=rdm1916.1.2 switch=n enabled=y phases=2 Linecode=1P_OH_AL_2_fs_0_Rucina_2
New object=Line.l_op_r_col_p1rlv1917_dash_rdm1918_cp_ Units=km Length=0.100972 bus1=rdm1918.1.2 bus2=p1rlv1917.1.2 switch=n enabled=y phases=2 Linecode=1P_OH_AL_4_fs_0_Zuzara_2
New object=Line.l_op_r_col_rdm1918_dash_rdt1141lv_cp_ Units=km Length=0.0108885 bus1=rdt1141lv.1.2 bus2=rdm1918.1.2 switch=n enabled=y phases=2 Linecode=1P_OH_AL_2_fs_0_Rucina_2
New object=Line.l_op_r_col_p1rlv1918_dash_rdt1142lv_cp_ Units=km Length=0.0383289 bus1=rdt1142lv.1.2 bus2=p1rlv1918.1.2 switch=n enabled=y phases=2 Linecode=1P_OH_AL_4_fs_0_Zuzara_2
New object=Line.l_op_r_col_p1rlv1921_dash_rdt1143lv_cp_ Units=km Length=0.0854783 bus1=rdt1143lv.1.2 bus2=p1rlv1921.1.2 switch=n enabled=y phases=2 Linecode=1P_OH_AL_4_fs_0_Zuzara_2
New object=Line.l_op_r_col_p1rlv1922_dash_rdt1143lv_cp_ Units=km Length=0.05200960000000001 bus1=rdt1143lv.1.2 bus2=p1rlv1922.1.2 switch=n enabled=y phases=2 Linecode=1P_OH_AL_4_fs_0_Zuzara_2
New object=Line.l_op_r_col_p1rlv1919_dash_rdm1920_cp_ Units=km Length=0.0754892 bus1=rdm1920.1.2 bus2=p1rlv1919.1.2 switch=n enabled=y phases=2 Linecode=1P_OH_AL_4_fs_0_Zuzara_2
New object=Line.l_op_r_col_p1rlv1920_dash_rdm1920_cp_ Units=km Length=0.104674 bus1=rdm1920.1.2 bus2=p1rlv1920.1.2 switch=n enabled=y phases=2 Linecode=1P_OH_AL_4_fs_0_Zuzara_2
New object=Line.l_op_r_col_rdm1920_dash_rdt1143lv_cp_ Units=km Length=0.034073 bus1=rdt1143lv.1.2 bus2=rdm1920.1.2 switch=n enabled=y phases=2 Linecode=1P_OH_AL_4_fs_0_Zuzara_2
New object=Line.l_op_r_col_p1rlv1923_dash_rdm1924_cp_ Units=km Length=0.0831555 bus1=rdm1924.1.2 bus2=p1rlv1923.1.2 switch=n enabled=y phases=2 Linecode=1P_OH_AL_4_fs_0_Zuzara_2
New object=Line.l_op_r_col_rdm1924_dash_rdt1143lv_cp_ Units=km Length=0.0340865 bus1=rdt1143lv.1.2 bus2=rdm1924.1.2 switch=n enabled=y phases=2 Linecode=1P_OH_AL_4_fs_0_Zuzara_2
New object=Line.l_op_r_col_p1rlv1924_dash_rdt1144lv_cp_ Units=km Length=0.001 bus1=rdt1144lv.1.2 bus2=p1rlv1924.1.2 switch=n enabled=y phases=2 Linecode=1P_OH_AL_4_Periwinkle_2
New object=Line.l_op_r_col_p1rlv1925_dash_rdt1145lv_cp_ Units=km Length=0.028217400000000004 bus1=rdt1145lv.1.2 bus2=p1rlv1925.1.2 switch=n enabled=y phases=2 Linecode=1P_OH_AL_4_fs_0_Zuzara_2
New object=Line.l_op_r_col_p1rlv1926_dash_rdt1145lv_cp_ Units=km Length=0.028217400000000004 bus1=rdt1145lv.1.2 bus2=p1rlv1926.1.2 switch=n enabled=y phases=2 Linecode=1P_OH_AL_4_fs_0_Zuzara_2
New object=Line.l_op_r_col_p1rlv1928_dash_rdt1146lv_cp_ Units=km Length=0.0885065 bus1=rdt1146lv.1.2 bus2=p1rlv1928.1.2 switch=n enabled=y phases=2 Linecode=1P_OH_AL_4_fs_0_Zuzara_2
New object=Line.l_op_r_col_p1rlv1931_dash_rdt1146lv_cp_ Units=km Length=0.109962 bus1=rdt1146lv.1.2 bus2=p1rlv1931.1.2 switch=n enabled=y phases=2 Linecode=1P_OH_AL_4_fs_0_Zuzara_2
New object=Line.l_op_r_col_p1rlv1932_dash_rdt1146lv_cp_ Units=km Length=0.143148 bus1=rdt1146lv.1.2 bus2=p1rlv1932.1.2 switch=n enabled=y phases=2 Linecode=1P_OH_AL_4_fs_0_Zuzara_2
New object=Line.l_op_r_col_p1rlv1929_dash_rdm1930_cp_ Units=km Length=0.0731915 bus1=rdm1930.1.2 bus2=p1rlv1929.1.2 switch=n enabled=y phases=2 Linecode=1P_OH_AL_4_fs_0_Zuzara_2
New object=Line.l_op_r_col_p1rlv1930_dash_rdm1930_cp_ Units=km Length=0.0767618 bus1=rdm1930.1.2 bus2=p1rlv1930.1.2 switch=n enabled=y phases=2 Linecode=1P_OH_AL_4_fs_0_Zuzara_2
New object=Line.l_op_r_col_rdm1930_dash_rdt1146lv_cp_ Units=km Length=0.0182279 bus1=rdt1146lv.1.2 bus2=rdm1930.1.2 switch=n enabled=y phases=2 Linecode=1P_OH_AL_2_fs_0_Rucina_2
New object=Line.l_op_r_col_p1rlv1933_dash_rdm1934_cp_ Units=km Length=0.00837055 bus1=rdm1934.1.2 bus2=p1rlv1933.1.2 switch=n enabled=y phases=2 Linecode=1P_OH_AL_2_fs_0_Rucina_2
New object=Line.l_op_r_col_p1rlv1927_dash_rdm1928_cp_ Units=km Length=0.0595902 bus1=rdm1928.1.2 bus2=p1rlv1927.1.2 switch=n enabled=y phases=2 Linecode=1P_OH_AL_4_fs_0_Zuzara_2
New object=Line.l_op_r_col_rdm1928_dash_rdm1934_cp_ Units=km Length=0.018217900000000002 bus1=rdm1934.1.2 bus2=rdm1928.1.2 switch=n enabled=y phases=2 Linecode=1P_OH_AL_2_fs_0_Rucina_2
New object=Line.l_op_r_col_rdm1934_dash_rdt1146lv_cp_ Units=km Length=0.018217900000000002 bus1=rdt1146lv.1.2 bus2=rdm1934.1.2 switch=n enabled=y phases=2 Linecode=1P_OH_AL_2_fs_0_Rucina_2
New object=Line.l_op_r_col_p1rlv1934_dash_rdt1147lv_cp_ Units=km Length=0.001 bus1=rdt1147lv.1.2 bus2=p1rlv1934.1.2 switch=n enabled=y phases=2 Linecode=1P_UG_AL_4_fs_0_Sweetbriar_2
New object=Line.l_op_r_col_p1rlv1936_dash_rdt1149lv_cp_ Units=km Length=0.001 bus1=rdt1149lv.1.2 bus2=p1rlv1936.1.2 switch=n enabled=y phases=2 Linecode=1P_UG_AL_1_fs_0_Brenau_2
New object=Line.l_op_r_col_p1rlv1937_dash_rdt1150lv_cp_ Units=km Length=0.099288 bus1=rdt1150lv.1.2 bus2=p1rlv1937.1.2 switch=n enabled=y phases=2 Linecode=1P_OH_AL_4_fs_0_Zuzara_2
New object=Line.l_op_r_col_p1rlv1938_dash_rdt1150lv_cp_ Units=km Length=0.0798413 bus1=rdt1150lv.1.2 bus2=p1rlv1938.1.2 switch=n enabled=y phases=2 Linecode=1P_OH_AL_4_fs_0_Zuzara_2
New object=Line.l_op_r_col_p1rlv1939_dash_rdt1151lv_cp_ Units=km Length=0.074647 bus1=rdt1151lv.1.2 bus2=p1rlv1939.1.2 switch=n enabled=y phases=2 Linecode=1P_OH_AL_4_fs_0_Zuzara_2
New object=Line.l_op_r_col_p1rlv1941_dash_rdt1151lv_cp_ Units=km Length=0.0966935 bus1=rdt1151lv.1.2 bus2=p1rlv1941.1.2 switch=n enabled=y phases=2 Linecode=1P_OH_AL_4_fs_0_Zuzara_2
New object=Line.l_op_r_col_p1rlv1940_dash_rdt1152lv_cp_ Units=km Length=0.050611 bus1=rdt1152lv.1.2 bus2=p1rlv1940.1.2 switch=n enabled=y phases=2 Linecode=1P_OH_AL_4_fs_0_Zuzara_2
New object=Line.l_op_r_col_p1rlv1942_dash_rdt1152lv_cp_ Units=km Length=0.12458100000000001 bus1=rdt1152lv.1.2 bus2=p1rlv1942.1.2 switch=n enabled=y phases=2 Linecode=1P_OH_AL_4_fs_0_Zuzara_2
New object=Line.l_op_r_col_p1rlv1943_dash_rdt1152lv_cp_ Units=km Length=0.0646262 bus1=rdt1152lv.1.2 bus2=p1rlv1943.1.2 switch=n enabled=y phases=2 Linecode=1P_OH_AL_4_fs_0_Zuzara_2
New object=Line.l_op_r_col_p1rlv1944_dash_rdt1152lv_cp_ Units=km Length=0.08321520000000002 bus1=rdt1152lv.1.2 bus2=p1rlv1944.1.2 switch=n enabled=y phases=2 Linecode=1P_OH_AL_4_fs_0_Zuzara_2
New object=Line.l_op_r_col_p1rlv1945_dash_rdt1152lv_cp_ Units=km Length=0.106537 bus1=rdt1152lv.1.2 bus2=p1rlv1945.1.2 switch=n enabled=y phases=2 Linecode=1P_OH_AL_4_fs_0_Zuzara_2
New object=Line.l_op_r_col_p1rlv1946_dash_rdt1153lv_cp_ Units=km Length=0.0213823 bus1=rdt1153lv.1.2 bus2=p1rlv1946.1.2 switch=n enabled=y phases=2 Linecode=1P_OH_AL_2_fs_0_Rucina_2
New object=Line.l_op_r_col_p1rlv1947_dash_rdt1153lv_cp_ Units=km Length=0.0213823 bus1=rdt1153lv.1.2 bus2=p1rlv1947.1.2 switch=n enabled=y phases=2 Linecode=1P_OH_AL_2_fs_0_Rucina_2
New object=Line.l_op_r_col_p1rlv1948_dash_rdt1154lv_cp_ Units=km Length=0.0456151 bus1=rdt1154lv.1.2 bus2=p1rlv1948.1.2 switch=n enabled=y phases=2 Linecode=1P_OH_AL_4_fs_0_Zuzara_2
New object=Line.l_op_r_col_p1rlv1949_dash_rdt1155lv_cp_ Units=km Length=0.027299 bus1=rdt1155lv.1.2 bus2=p1rlv1949.1.2 switch=n enabled=y phases=2 Linecode=1P_OH_AL_4_fs_0_Zuzara_2
New object=Line.l_op_r_col_p1rlv1952_dash_rdt1155lv_cp_ Units=km Length=0.0383389 bus1=rdt1155lv.1.2 bus2=p1rlv1952.1.2 switch=n enabled=y phases=2 Linecode=1P_OH_AL_4_fs_0_Zuzara_2
New object=Line.l_op_r_col_p1rlv1953_dash_rdt1155lv_cp_ Units=km Length=0.0179378 bus1=rdt1155lv.1.2 bus2=p1rlv1953.1.2 switch=n enabled=y phases=2 Linecode=1P_OH_AL_2_fs_0_Rucina_2
New object=Line.l_op_r_col_p1rlv1954_dash_rdt1155lv_cp_ Units=km Length=0.024829 bus1=rdt1155lv.1.2 bus2=p1rlv1954.1.2 switch=n enabled=y phases=2 Linecode=1P_OH_AL_2_fs_0_Rucina_2
New object=Line.l_op_r_col_p1rlv1950_dash_rdt1156lv_cp_ Units=km Length=0.0499967 bus1=rdt1156lv.1.2 bus2=p1rlv1950.1.2 switch=n enabled=y phases=2 Linecode=1P_OH_AL_4_fs_0_Zuzara_2
New object=Line.l_op_r_col_p1rlv1951_dash_rdm1955_cp_ Units=km Length=0.0284418 bus1=rdm1955.1.2 bus2=p1rlv1951.1.2 switch=n enabled=y phases=2 Linecode=1P_OH_AL_4_fs_0_Zuzara_2
New object=Line.l_op_r_col_rdm1955_dash_rdt1157lv_cp_ Units=km Length=0.018621 bus1=rdt1157lv.1.2 bus2=rdm1955.1.2 switch=n enabled=y phases=2 Linecode=1P_OH_AL_2_fs_0_Rucina_2
New object=Line.l_op_r_col_p1rlv2624_dash_rdm1956_cp_ Units=km Length=0.040952100000000005 bus1=rdm1956.1.2 bus2=p1rlv2624.1.2 switch=n enabled=y phases=2 Linecode=1P_OH_AL_4_fs_0_Zuzara_2
New object=Line.l_op_r_col_rdm1956_dash_rdt1157lv_cp_ Units=km Length=0.018622400000000004 bus1=rdt1157lv.1.2 bus2=rdm1956.1.2 switch=n enabled=y phases=2 Linecode=1P_OH_AL_2_fs_0_Rucina_2
New object=Line.l_op_r_col_p1rlv1955_dash_rdt1158lv_cp_ Units=km Length=0.001 bus1=rdt1158lv.1.2 bus2=p1rlv1955.1.2 switch=n enabled=y phases=2 Linecode=1P_OH_AL_4_Periwinkle_2
New object=Line.l_op_r_col_p1rlv1956_dash_rdt1159lv_cp_ Units=km Length=0.0103683 bus1=rdt1159lv.1.2 bus2=p1rlv1956.1.2 switch=n enabled=y phases=2 Linecode=1P_OH_AL_2_fs_0_Rucina_2
New object=Line.l_op_r_col_p1rlv1957_dash_rdt1159lv_cp_ Units=km Length=0.0103683 bus1=rdt1159lv.1.2 bus2=p1rlv1957.1.2 switch=n enabled=y phases=2 Linecode=1P_OH_AL_2_fs_0_Rucina_2
New object=Line.l_op_r_col_p1rlv1959_dash_rdt1161lv_cp_ Units=km Length=0.001 bus1=rdt1161lv.1.2 bus2=p1rlv1959.1.2 switch=n enabled=y phases=2 Linecode=1P_OH_AL_4_Periwinkle_2
New object=Line.l_op_r_col_p1rlv1960_dash_rdt1162lv_cp_ Units=km Length=0.001 bus1=rdt1162lv.1.2 bus2=p1rlv1960.1.2 switch=n enabled=y phases=2 Linecode=1P_OH_AL_4_Periwinkle_2
New object=Line.l_op_r_col_p1rlv1961_dash_rdt1163lv_cp_ Units=km Length=0.0433983 bus1=rdt1163lv.1.2 bus2=p1rlv1961.1.2 switch=n enabled=y phases=2 Linecode=1P_OH_AL_4_fs_0_Zuzara_2
New object=Line.l_op_r_col_p1rlv1962_dash_rdt1164lv_cp_ Units=km Length=0.0987029 bus1=rdt1164lv.1.2 bus2=p1rlv1962.1.2 switch=n enabled=y phases=2 Linecode=1P_OH_AL_4_fs_0_Zuzara_2
New object=Line.l_op_r_col_p1rlv1963_dash_rdm1965_cp_ Units=km Length=0.0410817 bus1=rdm1965.1.2 bus2=p1rlv1963.1.2 switch=n enabled=y phases=2 Linecode=1P_OH_AL_4_fs_0_Zuzara_2
New object=Line.l_op_r_col_rdm1965_dash_rdt1165lv_cp_ Units=km Length=0.0192635 bus1=rdt1165lv.1.2 bus2=rdm1965.1.2 switch=n enabled=y phases=2 Linecode=1P_OH_AL_2_fs_0_Rucina_2
New object=Line.l_op_r_col_p1rlv2614_dash_rdm1966_cp_ Units=km Length=0.0366603 bus1=rdm1966.1.2 bus2=p1rlv2614.1.2 switch=n enabled=y phases=2 Linecode=1P_OH_AL_4_fs_0_Zuzara_2
New object=Line.l_op_r_col_rdm1966_dash_rdt1165lv_cp_ Units=km Length=0.0385467 bus1=rdt1165lv.1.2 bus2=rdm1966.1.2 switch=n enabled=y phases=2 Linecode=1P_OH_AL_4_fs_0_Zuzara_2
New object=Line.l_op_r_col_p1rlv1964_dash_rdt1166lv_cp_ Units=km Length=0.0271652 bus1=rdt1166lv.1.2 bus2=p1rlv1964.1.2 switch=n enabled=y phases=2 Linecode=1P_OH_AL_4_fs_0_Zuzara_2
New object=Line.l_op_r_col_p1rlv1965_dash_rdt1167lv_cp_ Units=km Length=0.0443407 bus1=rdt1167lv.1.2 bus2=p1rlv1965.1.2 switch=n enabled=y phases=2 Linecode=1P_OH_AL_4_fs_0_Zuzara_2
New object=Line.l_op_r_col_p1rlv1966_dash_rdt1167lv_cp_ Units=km Length=0.0315512 bus1=rdt1167lv.1.2 bus2=p1rlv1966.1.2 switch=n enabled=y phases=2 Linecode=1P_OH_AL_4_fs_0_Zuzara_2
New object=Line.l_op_r_col_p1rlv1967_dash_rdt1167lv_cp_ Units=km Length=0.0622512 bus1=rdt1167lv.1.2 bus2=p1rlv1967.1.2 switch=n enabled=y phases=2 Linecode=1P_OH_AL_4_fs_0_Zuzara_2
New object=Line.l_op_r_col_p1rlv1968_dash_rdt1168lv_cp_ Units=km Length=0.0632074 bus1=rdt1168lv.1.2 bus2=p1rlv1968.1.2 switch=n enabled=y phases=2 Linecode=1P_OH_AL_4_fs_0_Zuzara_2
New object=Line.l_op_r_col_p1rlv1969_dash_rdt1168lv_cp_ Units=km Length=0.05385480000000001 bus1=rdt1168lv.1.2 bus2=p1rlv1969.1.2 switch=n enabled=y phases=2 Linecode=1P_OH_AL_4_fs_0_Zuzara_2
New object=Line.l_op_r_col_p1rlv1970_dash_rdt1168lv_cp_ Units=km Length=0.04234240000000001 bus1=rdt1168lv.1.2 bus2=p1rlv1970.1.2 switch=n enabled=y phases=2 Linecode=1P_OH_AL_4_fs_0_Zuzara_2
New object=Line.l_op_r_col_p1rlv1976_dash_rdt1168lv_cp_ Units=km Length=0.0942711 bus1=rdt1168lv.1.2 bus2=p1rlv1976.1.2 switch=n enabled=y phases=2 Linecode=1P_OH_AL_4_fs_0_Zuzara_2
New object=Line.l_op_r_col_p1rlv1977_dash_rdt1168lv_cp_ Units=km Length=0.0760751 bus1=rdt1168lv.1.2 bus2=p1rlv1977.1.2 switch=n enabled=y phases=2 Linecode=1P_OH_AL_4_fs_0_Zuzara_2
New object=Line.l_op_r_col_p1rlv1978_dash_rdt1168lv_cp_ Units=km Length=0.0871004 bus1=rdt1168lv.1.2 bus2=p1rlv1978.1.2 switch=n enabled=y phases=2 Linecode=1P_OH_AL_4_fs_0_Zuzara_2
New object=Line.l_op_r_col_p1rlv1971_dash_rdt1169lv_cp_ Units=km Length=0.120968 bus1=rdt1169lv.1.2 bus2=p1rlv1971.1.2 switch=n enabled=y phases=2 Linecode=1P_OH_AL_4_fs_0_Zuzara_2
New object=Line.l_op_r_col_p1rlv1972_dash_rdm1978_cp_ Units=km Length=0.08975460000000002 bus1=rdm1978.1.2 bus2=p1rlv1972.1.2 switch=n enabled=y phases=2 Linecode=1P_OH_AL_4_fs_0_Zuzara_2
New object=Line.l_op_r_col_p1rlv1973_dash_rdm1978_cp_ Units=km Length=0.113448 bus1=rdm1978.1.2 bus2=p1rlv1973.1.2 switch=n enabled=y phases=2 Linecode=1P_OH_AL_4_fs_0_Zuzara_2
New object=Line.l_op_r_col_rdm1978_dash_rdt1169lv_cp_ Units=km Length=0.0188668 bus1=rdt1169lv.1.2 bus2=rdm1978.1.2 switch=n enabled=y phases=2 Linecode=1P_OH_AL_2_fs_0_Rucina_2
New object=Line.l_op_r_col_p1rlv1974_dash_rdm1980_cp_ Units=km Length=0.0620553 bus1=rdm1980.1.2 bus2=p1rlv1974.1.2 switch=n enabled=y phases=2 Linecode=1P_OH_AL_4_fs_0_Zuzara_2
New object=Line.l_op_r_col_rdm1980_dash_rdt1169lv_cp_ Units=km Length=0.018857 bus1=rdt1169lv.1.2 bus2=rdm1980.1.2 switch=n enabled=y phases=2 Linecode=1P_OH_AL_2_fs_0_Rucina_2
New object=Line.l_op_r_col_p1rlv1975_dash_rdt1170lv_cp_ Units=km Length=0.001 bus1=rdt1170lv.1.2 bus2=p1rlv1975.1.2 switch=n enabled=y phases=2 Linecode=1P_OH_AL_4_Periwinkle_2
New object=Line.l_op_r_col_p1rlv1979_dash_rdt1171lv_cp_ Units=km Length=0.030149700000000005 bus1=rdt1171lv.1.2 bus2=p1rlv1979.1.2 switch=n enabled=y phases=2 Linecode=1P_OH_AL_4_fs_0_Zuzara_2
New object=Line.l_op_r_col_p1rlv1980_dash_rdt1171lv_cp_ Units=km Length=0.030149700000000005 bus1=rdt1171lv.1.2 bus2=p1rlv1980.1.2 switch=n enabled=y phases=2 Linecode=1P_OH_AL_4_fs_0_Zuzara_2
New object=Line.l_op_r_col_p1rlv1981_dash_rdt1172lv_cp_ Units=km Length=0.08750370000000002 bus1=rdt1172lv.1.2 bus2=p1rlv1981.1.2 switch=n enabled=y phases=2 Linecode=1P_OH_AL_4_fs_0_Zuzara_2
New object=Line.l_op_r_col_p1rlv1982_dash_rdt1173lv_cp_ Units=km Length=0.0843964 bus1=rdt1173lv.1.2 bus2=p1rlv1982.1.2 switch=n enabled=y phases=2 Linecode=1P_OH_AL_4_fs_0_Zuzara_2
New object=Line.l_op_r_col_p1rlv1984_dash_rdt1173lv_cp_ Units=km Length=0.0131792 bus1=rdt1173lv.1.2 bus2=p1rlv1984.1.2 switch=n enabled=y phases=2 Linecode=1P_OH_AL_2_fs_0_Rucina_2
New object=Line.l_op_r_col_p1rlv1983_dash_rdt1174lv_cp_ Units=km Length=0.0324891 bus1=rdt1174lv.1.2 bus2=p1rlv1983.1.2 switch=n enabled=y phases=2 Linecode=1P_OH_AL_4_fs_0_Zuzara_2
New object=Line.l_op_r_col_p1rlv1985_dash_rdt1175lv_cp_ Units=km Length=0.00920396 bus1=rdt1175lv.1.2 bus2=p1rlv1985.1.2 switch=n enabled=y phases=2 Linecode=1P_OH_AL_2_fs_0_Rucina_2
New object=Line.l_op_r_col_p1rlv1986_dash_rdt1176lv_cp_ Units=km Length=0.0448608 bus1=rdt1176lv.1.2 bus2=p1rlv1986.1.2 switch=n enabled=y phases=2 Linecode=1P_OH_AL_4_fs_0_Zuzara_2
New object=Line.l_op_r_col_p1rlv1987_dash_rdt1176lv_cp_ Units=km Length=0.11901 bus1=rdt1176lv.1.2 bus2=p1rlv1987.1.2 switch=n enabled=y phases=2 Linecode=1P_OH_AL_4_fs_0_Zuzara_2
New object=Line.l_op_r_col_p1rlv1988_dash_rdt1177lv_cp_ Units=km Length=0.001 bus1=rdt1177lv.1.2 bus2=p1rlv1988.1.2 switch=n enabled=y phases=2 Linecode=1P_OH_AL_4_Periwinkle_2
New object=Line.l_op_r_col_p1rlv1989_dash_rdt1178lv_cp_ Units=km Length=0.0942113 bus1=rdt1178lv.1.2 bus2=p1rlv1989.1.2 switch=n enabled=y phases=2 Linecode=1P_OH_AL_4_fs_0_Zuzara_2
New object=Line.l_op_r_col_p1rlv1990_dash_rdm1993_cp_ Units=km Length=0.0632054 bus1=rdm1993.1.2 bus2=p1rlv1990.1.2 switch=n enabled=y phases=2 Linecode=1P_OH_AL_4_fs_0_Zuzara_2
New object=Line.l_op_r_col_rdm1993_dash_rdt1179lv_cp_ Units=km Length=0.013892800000000002 bus1=rdt1179lv.1.2 bus2=rdm1993.1.2 switch=n enabled=y phases=2 Linecode=1P_OH_AL_2_fs_0_Rucina_2
New object=Line.l_op_r_col_p1rlv1991_dash_rdm1994_cp_ Units=km Length=0.10253000000000001 bus1=rdm1994.1.2 bus2=p1rlv1991.1.2 switch=n enabled=y phases=2 Linecode=1P_OH_AL_4_fs_0_Zuzara_2
New object=Line.l_op_r_col_rdm1994_dash_rdt1179lv_cp_ Units=km Length=0.0138936 bus1=rdt1179lv.1.2 bus2=rdm1994.1.2 switch=n enabled=y phases=2 Linecode=1P_OH_AL_2_fs_0_Rucina_2
New object=Line.l_op_r_col_p1rlv1992_dash_rdt1180lv_cp_ Units=km Length=0.001 bus1=rdt1180lv.1.2 bus2=p1rlv1992.1.2 switch=n enabled=y phases=2 Linecode=1P_OH_AL_4_Periwinkle_2
New object=Line.l_op_r_col_p1rlv1993_dash_rdt1181lv_cp_ Units=km Length=0.0922533 bus1=rdt1181lv.1.2 bus2=p1rlv1993.1.2 switch=n enabled=y phases=2 Linecode=1P_OH_AL_4_fs_0_Zuzara_2
New object=Line.l_op_r_col_p1rlv1994_dash_rdt1182lv_cp_ Units=km Length=0.0433006 bus1=rdt1182lv.1.2 bus2=p1rlv1994.1.2 switch=n enabled=y phases=2 Linecode=1P_OH_AL_4_fs_0_Zuzara_2
New object=Line.l_op_r_col_p1rlv1995_dash_rdt1183lv_cp_ Units=km Length=0.0519836 bus1=rdt1183lv.1.2 bus2=p1rlv1995.1.2 switch=n enabled=y phases=2 Linecode=1P_OH_AL_4_fs_0_Zuzara_2
New object=Line.l_op_r_col_p1rlv1997_dash_rdt1184lv_cp_ Units=km Length=0.077777 bus1=rdt1184lv.1.2 bus2=p1rlv1997.1.2 switch=n enabled=y phases=2 Linecode=1P_OH_AL_4_fs_0_Zuzara_2
New object=Line.l_op_r_col_p1rlv1996_dash_rdm1999_cp_ Units=km Length=0.0706744 bus1=rdm1999.1.2 bus2=p1rlv1996.1.2 switch=n enabled=y phases=2 Linecode=1P_OH_AL_4_fs_0_Zuzara_2
New object=Line.l_op_r_col_rdm1999_dash_rdt1184lv_cp_ Units=km Length=0.0187926 bus1=rdt1184lv.1.2 bus2=rdm1999.1.2 switch=n enabled=y phases=2 Linecode=1P_OH_AL_2_fs_0_Rucina_2
New object=Line.l_op_r_col_p1rlv1998_dash_rdm2001_cp_ Units=km Length=0.0405927 bus1=rdm2001.1.2 bus2=p1rlv1998.1.2 switch=n enabled=y phases=2 Linecode=1P_OH_AL_4_fs_0_Zuzara_2
New object=Line.l_op_r_col_rdm2001_dash_rdt1184lv_cp_ Units=km Length=0.0187839 bus1=rdt1184lv.1.2 bus2=rdm2001.1.2 switch=n enabled=y phases=2 Linecode=1P_OH_AL_2_fs_0_Rucina_2
New object=Line.l_op_r_col_p1rlv1999_dash_rdt1185lv_cp_ Units=km Length=0.0626692 bus1=rdt1185lv.1.2 bus2=p1rlv1999.1.2 switch=n enabled=y phases=2 Linecode=1P_OH_AL_4_fs_0_Zuzara_2
New object=Line.l_op_r_col_p1rlv2000_dash_rdt1186lv_cp_ Units=km Length=0.0280018 bus1=rdt1186lv.1.2 bus2=p1rlv2000.1.2 switch=n enabled=y phases=2 Linecode=1P_OH_AL_4_fs_0_Zuzara_2
New object=Line.l_op_r_col_p1rlv2001_dash_rdt1187lv_cp_ Units=km Length=0.001 bus1=rdt1187lv.1.2 bus2=p1rlv2001.1.2 switch=n enabled=y phases=2 Linecode=1P_OH_AL_4_Periwinkle_2
New object=Line.l_op_r_col_p1rlv2002_dash_rdt1188lv_cp_ Units=km Length=0.0342084 bus1=rdt1188lv.1.2 bus2=p1rlv2002.1.2 switch=n enabled=y phases=2 Linecode=1P_OH_AL_4_fs_0_Zuzara_2
New object=Line.l_op_r_col_p1rlv2003_dash_rdt1189lv_cp_ Units=km Length=0.0393511 bus1=rdt1189lv.1.2 bus2=p1rlv2003.1.2 switch=n enabled=y phases=2 Linecode=1P_OH_AL_4_fs_0_Zuzara_2
New object=Line.l_op_r_col_p1rlv2004_dash_rdt1189lv_cp_ Units=km Length=0.0151414 bus1=rdt1189lv.1.2 bus2=p1rlv2004.1.2 switch=n enabled=y phases=2 Linecode=1P_OH_AL_2_fs_0_Rucina_2
New object=Line.l_op_r_col_p1rlv2005_dash_rdt1189lv_cp_ Units=km Length=0.0381589 bus1=rdt1189lv.1.2 bus2=p1rlv2005.1.2 switch=n enabled=y phases=2 Linecode=1P_OH_AL_4_fs_0_Zuzara_2
New object=Line.l_op_r_col_p1rlv2006_dash_rdt1190lv_cp_ Units=km Length=0.0386953 bus1=rdt1190lv.1.2 bus2=p1rlv2006.1.2 switch=n enabled=y phases=2 Linecode=1P_OH_AL_4_fs_0_Zuzara_2
New object=Line.l_op_r_col_p1rlv2007_dash_rdt1190lv_cp_ Units=km Length=0.0494073 bus1=rdt1190lv.1.2 bus2=p1rlv2007.1.2 switch=n enabled=y phases=2 Linecode=1P_OH_AL_4_fs_0_Zuzara_2
New object=Line.l_op_r_col_p1rlv2008_dash_rdm2011_cp_ Units=km Length=0.05974440000000001 bus1=rdm2011.1.2 bus2=p1rlv2008.1.2 switch=n enabled=y phases=2 Linecode=1P_OH_AL_4_fs_0_Zuzara_2
New object=Line.l_op_r_col_rdm2011_dash_rdt1190lv_cp_ Units=km Length=0.0179543 bus1=rdt1190lv.1.2 bus2=rdm2011.1.2 switch=n enabled=y phases=2 Linecode=1P_OH_AL_2_fs_0_Rucina_2
New object=Line.l_op_r_col_p1rlv2009_dash_rdt1191lv_cp_ Units=km Length=0.041132100000000005 bus1=rdt1191lv.1.2 bus2=p1rlv2009.1.2 switch=n enabled=y phases=2 Linecode=1P_OH_AL_4_fs_0_Zuzara_2
New object=Line.l_op_r_col_p1rlv2010_dash_rdt1192lv_cp_ Units=km Length=0.0369406 bus1=rdt1192lv.1.2 bus2=p1rlv2010.1.2 switch=n enabled=y phases=2 Linecode=1P_OH_AL_4_fs_0_Zuzara_2
New object=Line.l_op_r_col_p1rlv2011_dash_rdt1193lv_cp_ Units=km Length=0.0331988 bus1=rdt1193lv.1.2 bus2=p1rlv2011.1.2 switch=n enabled=y phases=2 Linecode=1P_OH_AL_4_fs_0_Zuzara_2
New object=Line.l_op_r_col_p1rlv2012_dash_rdt1194lv_cp_ Units=km Length=0.05019110000000001 bus1=rdt1194lv.1.2 bus2=p1rlv2012.1.2 switch=n enabled=y phases=2 Linecode=1P_OH_AL_4_fs_0_Zuzara_2
New object=Line.l_op_r_col_p1rlv2013_dash_rdm2016_cp_ Units=km Length=0.08240420000000001 bus1=rdm2016.1.2 bus2=p1rlv2013.1.2 switch=n enabled=y phases=2 Linecode=1P_OH_AL_4_fs_0_Zuzara_2
New object=Line.l_op_r_col_rdm2016_dash_rdt1195lv_cp_ Units=km Length=0.036151 bus1=rdt1195lv.1.2 bus2=rdm2016.1.2 switch=n enabled=y phases=2 Linecode=1P_OH_AL_4_fs_0_Zuzara_2
New object=Line.l_op_r_col_p1rlv2014_dash_rdm2017_cp_ Units=km Length=0.0670775 bus1=rdm2017.1.2 bus2=p1rlv2014.1.2 switch=n enabled=y phases=2 Linecode=1P_OH_AL_4_fs_0_Zuzara_2
New object=Line.l_op_r_col_p1rlv2015_dash_rdm2017_cp_ Units=km Length=0.12218 bus1=rdm2017.1.2 bus2=p1rlv2015.1.2 switch=n enabled=y phases=2 Linecode=1P_OH_AL_4_fs_0_Zuzara_2
New object=Line.l_op_r_col_rdm2017_dash_rdt1195lv_cp_ Units=km Length=0.0122325 bus1=rdt1195lv.1.2 bus2=rdm2017.1.2 switch=n enabled=y phases=2 Linecode=1P_OH_AL_2_fs_0_Rucina_2
New object=Line.l_op_r_col_p1rlv2016_dash_rdt1196lv_cp_ Units=km Length=0.102331 bus1=rdt1196lv.1.2 bus2=p1rlv2016.1.2 switch=n enabled=y phases=2 Linecode=1P_OH_AL_4_fs_0_Zuzara_2
New object=Line.l_op_r_col_p1rlv2017_dash_rdt1196lv_cp_ Units=km Length=0.0494895 bus1=rdt1196lv.1.2 bus2=p1rlv2017.1.2 switch=n enabled=y phases=2 Linecode=1P_OH_AL_4_fs_0_Zuzara_2
New object=Line.l_op_r_col_p1rlv2018_dash_rdt1197lv_cp_ Units=km Length=0.057925800000000006 bus1=rdt1197lv.1.2 bus2=p1rlv2018.1.2 switch=n enabled=y phases=2 Linecode=1P_OH_AL_4_fs_0_Zuzara_2
New object=Line.l_op_r_col_p1rlv2019_dash_rdt1198lv_cp_ Units=km Length=0.044449100000000005 bus1=rdt1198lv.1.2 bus2=p1rlv2019.1.2 switch=n enabled=y phases=2 Linecode=1P_OH_AL_4_fs_0_Zuzara_2
New object=Line.l_op_r_col_p1rlv2020_dash_rdt1199lv_cp_ Units=km Length=0.037689900000000005 bus1=rdt1199lv.1.2 bus2=p1rlv2020.1.2 switch=n enabled=y phases=2 Linecode=1P_OH_AL_4_fs_0_Zuzara_2
New object=Line.l_op_r_col_p1rlv2021_dash_rdt1200lv_cp_ Units=km Length=0.052543700000000006 bus1=rdt1200lv.1.2 bus2=p1rlv2021.1.2 switch=n enabled=y phases=2 Linecode=1P_OH_AL_4_fs_0_Zuzara_2
New object=Line.l_op_r_col_p1rlv2023_dash_rdt1202lv_cp_ Units=km Length=0.0433338 bus1=rdt1202lv.1.2 bus2=p1rlv2023.1.2 switch=n enabled=y phases=2 Linecode=1P_OH_AL_4_fs_0_Zuzara_2
New object=Line.l_op_r_col_p1rlv2024_dash_rdt1203lv_cp_ Units=km Length=0.0601134 bus1=rdt1203lv.1.2 bus2=p1rlv2024.1.2 switch=n enabled=y phases=2 Linecode=1P_OH_AL_4_fs_0_Zuzara_2
...
New object=Fuse.Fuse_fuse_op_r_col_rdt1113_dash_rdt1114_cp_r_9479 monitoredobj=Line.fuse_op_r_col_rdt1113_dash_rdt1114_cp_r_9479 enabled=y ratedcurrent=165.0
New object=Line.fuse_op_r_col_rdt1115_dash_rdt1116_cp_r_9480 Units=km Length=0.001 bus1=rdt1116.3 bus2=rdt1115_dash_rdt1116x.3 switch=n enabled=y phases=1 Linecode=fuse_1_4
New object=Fuse.Fuse_fuse_op_r_col_rdt1115_dash_rdt1116_cp_r_9480 monitoredobj=Line.fuse_op_r_col_rdt1115_dash_rdt1116_cp_r_9480 enabled=y ratedcurrent=165.0
New object=Line.fuse_op_r_col_rdt1116_dash_rdt1117_cp_r_9481 Units=km Length=0.001 bus1=rdt1116.1 bus2=rdt1116_dash_rdt1117x.1 switch=n enabled=y phases=1 Linecode=fuse_1_4
New object=Fuse.Fuse_fuse_op_r_col_rdt1116_dash_rdt1117_cp_r_9481 monitoredobj=Line.fuse_op_r_col_rdt1116_dash_rdt1117_cp_r_9481 enabled=y ratedcurrent=165.0
New object=Line.fuse_op_r_col_rdt1134_dash_rdt798_cp_r_9482 Units=km Length=0.001 bus1=rdt1134.2 bus2=rdt1134_dash_rdt798x.2 switch=n enabled=y phases=1 Linecode=fuse_1_6
New object=Fuse.Fuse_fuse_op_r_col_rdt1134_dash_rdt798_cp_r_9482 monitoredobj=Line.fuse_op_r_col_rdt1134_dash_rdt798_cp_r_9482 enabled=y ratedcurrent=165.0
New object=Line.fuse_op_r_col_rdt1133_dash_rdt1134_cp_r_9483 Units=km Length=0.001 bus1=rdt1134.3 bus2=rdt1133_dash_rdt1134x.3 switch=n enabled=y phases=1 Linecode=fuse_1_4
New object=Fuse.Fuse_fuse_op_r_col_rdt1133_dash_rdt1134_cp_r_9483 monitoredobj=Line.fuse_op_r_col_rdt1133_dash_rdt1134_cp_r_9483 enabled=y ratedcurrent=165.0
New object=Line.fuse_op_r_col_rdt1135_dash_rdt1136_cp_r_9484 Units=km Length=0.001 bus1=rdt1135.1 bus2=rdt1135_dash_rdt1136x.1 switch=n enabled=y phases=1 Linecode=fuse_1_3
New object=Fuse.Fuse_fuse_op_r_col_rdt1135_dash_rdt1136_cp_r_9484 monitoredobj=Line.fuse_op_r_col_rdt1135_dash_rdt1136_cp_r_9484 enabled=y ratedcurrent=165.0
New object=Line.fuse_op_r_col_rdt1140_dash_rdt1141_cp_r_9485 Units=km Length=0.001 bus1=rdt1141.2 bus2=rdt1140_dash_rdt1141x.2 switch=n enabled=y phases=1 Linecode=fuse_1_3
New object=Fuse.Fuse_fuse_op_r_col_rdt1140_dash_rdt1141_cp_r_9485 monitoredobj=Line.fuse_op_r_col_rdt1140_dash_rdt1141_cp_r_9485 enabled=y ratedcurrent=165.0
New object=Line.fuse_op_r_col_rdt1137_dash_rdt1143_cp_r_9486 Units=km Length=0.001 bus1=rdt1143.2 bus2=rdt1137_dash_rdt1143x.2 switch=n enabled=y phases=1 Linecode=fuse_1_3
New object=Fuse.Fuse_fuse_op_r_col_rdt1137_dash_rdt1143_cp_r_9486 monitoredobj=Line.fuse_op_r_col_rdt1137_dash_rdt1143_cp_r_9486 enabled=y ratedcurrent=165.0
New object=Line.fuse_op_r_col_rdt1143_dash_rdt1144_cp_r_9487 Units=km Length=0.001 bus1=rdt1143.2 bus2=rdt1143_dash_rdt1144x.2 switch=n enabled=y phases=1 Linecode=fuse_1_3
New object=Fuse.Fuse_fuse_op_r_col_rdt1143_dash_rdt1144_cp_r_9487 monitoredobj=Line.fuse_op_r_col_rdt1143_dash_rdt1144_cp_r_9487 enabled=y ratedcurrent=165.0
New object=Line.fuse_op_r_col_rdt1148_dash_rdt1149_cp_r_9488 Units=km Length=0.001 bus1=rdt1148.3 bus2=rdt1148_dash_rdt1149x.3 switch=n enabled=y phases=1 Linecode=fuse_1_2
New object=Fuse.Fuse_fuse_op_r_col_rdt1148_dash_rdt1149_cp_r_9488 monitoredobj=Line.fuse_op_r_col_rdt1148_dash_rdt1149_cp_r_9488 enabled=y ratedcurrent=151.0
New object=Line.fuse_op_r_col_rdt1150_dash_rdt1151_cp_r_9489 Units=km Length=0.001 bus1=rdt1151.2 bus2=rdt1150_dash_rdt1151x.2 switch=n enabled=y phases=1 Linecode=fuse_1_4
New object=Fuse.Fuse_fuse_op_r_col_rdt1150_dash_rdt1151_cp_r_9489 monitoredobj=Line.fuse_op_r_col_rdt1150_dash_rdt1151_cp_r_9489 enabled=y ratedcurrent=165.0
New object=Line.fuse_op_r_col_rdt1153_dash_rdt1156_cp_r_9490 Units=km Length=0.001 bus1=rdt1156.3 bus2=rdt1153_dash_rdt1156x.3 switch=n enabled=y phases=1 Linecode=fuse_1_3
New object=Fuse.Fuse_fuse_op_r_col_rdt1153_dash_rdt1156_cp_r_9490 monitoredobj=Line.fuse_op_r_col_rdt1153_dash_rdt1156_cp_r_9490 enabled=y ratedcurrent=165.0
New object=Line.fuse_op_r_col_rdt1159_dash_rdt1160_cp_r_9491 Units=km Length=0.001 bus1=rdt1160.3 bus2=rdt1159_dash_rdt1160x.3 switch=n enabled=y phases=1 Linecode=fuse_1_4
New object=Fuse.Fuse_fuse_op_r_col_rdt1159_dash_rdt1160_cp_r_9491 monitoredobj=Line.fuse_op_r_col_rdt1159_dash_rdt1160_cp_r_9491 enabled=y ratedcurrent=165.0
New object=Line.fuse_op_r_col_rdt1161_dash_rdt1162_cp_r_9492 Units=km Length=0.001 bus1=rdt1162.1 bus2=rdt1161_dash_rdt1162x.1 switch=n enabled=y phases=1 Linecode=fuse_1_3
New object=Fuse.Fuse_fuse_op_r_col_rdt1161_dash_rdt1162_cp_r_9492 monitoredobj=Line.fuse_op_r_col_rdt1161_dash_rdt1162_cp_r_9492 enabled=y ratedcurrent=165.0
New object=Line.fuse_op_r_col_rdt1155_dash_rdt1163_cp_r_9493 Units=km Length=0.001 bus1=rdt1163.3 bus2=rdt1155_dash_rdt1163x.3 switch=n enabled=y phases=1 Linecode=fuse_1_3
New object=Fuse.Fuse_fuse_op_r_col_rdt1155_dash_rdt1163_cp_r_9493 monitoredobj=Line.fuse_op_r_col_rdt1155_dash_rdt1163_cp_r_9493 enabled=y ratedcurrent=165.0
New object=Line.fuse_op_r_col_rdt1166_dash_rdt1578_cp_r_9494 Units=km Length=0.001 bus1=rdt1166.1 bus2=rdt1166_dash_rdt1578x.1 switch=n enabled=y phases=1 Linecode=fuse_1_3
New object=Fuse.Fuse_fuse_op_r_col_rdt1166_dash_rdt1578_cp_r_9494 monitoredobj=Line.fuse_op_r_col_rdt1166_dash_rdt1578_cp_r_9494 enabled=y ratedcurrent=165.0
New object=Line.fuse_op_r_col_rdt1173_dash_rdt1174_cp_r_9495 Units=km Length=0.001 bus1=rdt1174.1 bus2=rdt1173_dash_rdt1174x.1 switch=n enabled=y phases=1 Linecode=fuse_1_3
New object=Fuse.Fuse_fuse_op_r_col_rdt1173_dash_rdt1174_cp_r_9495 monitoredobj=Line.fuse_op_r_col_rdt1173_dash_rdt1174_cp_r_9495 enabled=y ratedcurrent=165.0
New object=Line.fuse_op_r_col_rdt1174_dash_rdt1177_cp_r_9496 Units=km Length=0.001 bus1=rdt1174.3 bus2=rdt1174_dash_rdt1177x.3 switch=n enabled=y phases=1 Linecode=fuse_1_3
New object=Fuse.Fuse_fuse_op_r_col_rdt1174_dash_rdt1177_cp_r_9496 monitoredobj=Line.fuse_op_r_col_rdt1174_dash_rdt1177_cp_r_9496 enabled=y ratedcurrent=165.0
New object=Line.fuse_op_r_col_rdt1178_dash_rdt1181_cp_r_9497 Units=km Length=0.001 bus1=rdt1178.3 bus2=rdt1178_dash_rdt1181x.3 switch=n enabled=y phases=1 Linecode=fuse_1_3
New object=Fuse.Fuse_fuse_op_r_col_rdt1178_dash_rdt1181_cp_r_9497 monitoredobj=Line.fuse_op_r_col_rdt1178_dash_rdt1181_cp_r_9497 enabled=y ratedcurrent=165.0
New object=Line.fuse_op_r_col_rdt1145_dash_rdt1186_cp_r_9498 Units=km Length=0.001 bus1=rdt1186.2 bus2=rdt1145_dash_rdt1186x.2 switch=n enabled=y phases=1 Linecode=fuse_1_3
New object=Fuse.Fuse_fuse_op_r_col_rdt1145_dash_rdt1186_cp_r_9498 monitoredobj=Line.fuse_op_r_col_rdt1145_dash_rdt1186_cp_r_9498 enabled=y ratedcurrent=165.0
New object=Line.fuse_op_r_col_rdt1186_dash_rdt1187_cp_r_9499 Units=km Length=0.001 bus1=rdt1186.1 bus2=rdt1186_dash_rdt1187x.1 switch=n enabled=y phases=1 Linecode=fuse_1_3
New object=Fuse.Fuse_fuse_op_r_col_rdt1186_dash_rdt1187_cp_r_9499 monitoredobj=Line.fuse_op_r_col_rdt1186_dash_rdt1187_cp_r_9499 enabled=y ratedcurrent=165.0
New object=Line.fuse_op_r_col_rdt1189_dash_rdt1190_cp_r_9500 Units=km Length=0.001 bus1=rdt1190.2 bus2=rdt1189_dash_rdt1190x.2 switch=n enabled=y phases=1 Linecode=fuse_1_3
New object=Fuse.Fuse_fuse_op_r_col_rdt1189_dash_rdt1190_cp_r_9500 monitoredobj=Line.fuse_op_r_col_rdt1189_dash_rdt1190_cp_r_9500 enabled=y ratedcurrent=165.0
New object=Line.fuse_op_r_col_rdt1170_dash_rdt1191_cp_r_9501 Units=km Length=0.001 bus1=rdt1191.3 bus2=rdt1170_dash_rdt1191x.3 switch=n enabled=y phases=1 Linecode=fuse_1_3
New object=Fuse.Fuse_fuse_op_r_col_rdt1170_dash_rdt1191_cp_r_9501 monitoredobj=Line.fuse_op_r_col_rdt1170_dash_rdt1191_cp_r_9501 enabled=y ratedcurrent=165.0
New object=Line.fuse_op_r_col_rdt1199_dash_rdt1200_cp_r_9502 Units=km Length=0.001 bus1=rdt1199.3 bus2=rdt1199_dash_rdt1200x.3 switch=n enabled=y phases=1 Linecode=fuse_1_3
New object=Fuse.Fuse_fuse_op_r_col_rdt1199_dash_rdt1200_cp_r_9502 monitoredobj=Line.fuse_op_r_col_rdt1199_dash_rdt1200_cp_r_9502 enabled=y ratedcurrent=165.0
New object=Line.fuse_op_r_col_rdt1526_dash_rdt1529_cp_r_9554 Units=km Length=0.001 bus1=rdt1526.3 bus2=rdt1526_dash_rdt1529x.3 switch=n enabled=y phases=1 Linecode=fuse_1_3
New object=Fuse.Fuse_fuse_op_r_col_rdt1526_dash_rdt1529_cp_r_9554 monitoredobj=Line.fuse_op_r_col_rdt1526_dash_rdt1529_cp_r_9554 enabled=y ratedcurrent=165.0
New object=Line.fuse_op_r_col_rdt1525_dash_rdt1527_cp_r_9555 Units=km Length=0.001 bus1=rdt1527.1 bus2=rdt1525_dash_rdt1527x.1 switch=n enabled=y phases=1 Linecode=fuse_1_3
New object=Fuse.Fuse_fuse_op_r_col_rdt1525_dash_rdt1527_cp_r_9555 monitoredobj=Line.fuse_op_r_col_rdt1525_dash_rdt1527_cp_r_9555 enabled=y ratedcurrent=165.0
New object=Line.fuse_op_r_col_rdt1538_dash_rdt1540_cp_r_9557 Units=km Length=0.001 bus1=rdt1538.3 bus2=rdt1538_dash_rdt1540x.3 switch=n enabled=y phases=1 Linecode=fuse_1_3
New object=Fuse.Fuse_fuse_op_r_col_rdt1538_dash_rdt1540_cp_r_9557 monitoredobj=Line.fuse_op_r_col_rdt1538_dash_rdt1540_cp_r_9557 enabled=y ratedcurrent=165.0
New object=Line.fuse_op_r_col_rdt1545_dash_rdt1925_cp_r_9558 Units=km Length=0.001 bus1=rdt1545.3 bus2=rdt1545_dash_rdt1925x.3 switch=n enabled=y phases=1 Linecode=fuse_1_3
New object=Fuse.Fuse_fuse_op_r_col_rdt1545_dash_rdt1925_cp_r_9558 monitoredobj=Line.fuse_op_r_col_rdt1545_dash_rdt1925_cp_r_9558 enabled=y ratedcurrent=165.0
New object=Line.fuse_op_r_col_rdt1548_dash_rdt1549_cp_r_9559 Units=km Length=0.001 bus1=rdt1548.3 bus2=rdt1548_dash_rdt1549x.3 switch=n enabled=y phases=1 Linecode=fuse_1_4
New object=Fuse.Fuse_fuse_op_r_col_rdt1548_dash_rdt1549_cp_r_9559 monitoredobj=Line.fuse_op_r_col_rdt1548_dash_rdt1549_cp_r_9559 enabled=y ratedcurrent=115.0
New object=Line.fuse_op_r_col_rdt1556_dash_rdt1560_cp_r_9560 Units=km Length=0.001 bus1=rdt1560.3 bus2=rdt1556_dash_rdt1560x.3 switch=n enabled=y phases=1 Linecode=fuse_1_3
New object=Fuse.Fuse_fuse_op_r_col_rdt1556_dash_rdt1560_cp_r_9560 monitoredobj=Line.fuse_op_r_col_rdt1556_dash_rdt1560_cp_r_9560 enabled=y ratedcurrent=165.0
New object=Line.fuse_op_r_col_rdt1557_dash_rdt1564_cp_r_9561 Units=km Length=0.001 bus1=rdt1564.2 bus2=rdt1557_dash_rdt1564x.2 switch=n enabled=y phases=1 Linecode=fuse_1_3
New object=Fuse.Fuse_fuse_op_r_col_rdt1557_dash_rdt1564_cp_r_9561 monitoredobj=Line.fuse_op_r_col_rdt1557_dash_rdt1564_cp_r_9561 enabled=y ratedcurrent=165.0
New object=Line.fuse_op_r_col_rdt1576_dash_rdt1579_cp_r_9565 Units=km Length=0.001 bus1=rdt1579.2 bus2=rdt1576_dash_rdt1579x.2 switch=n enabled=y phases=1 Linecode=fuse_1_3
New object=Fuse.Fuse_fuse_op_r_col_rdt1576_dash_rdt1579_cp_r_9565 monitoredobj=Line.fuse_op_r_col_rdt1576_dash_rdt1579_cp_r_9565 enabled=y ratedcurrent=165.0
New object=Line.fuse_op_r_col_rdt1579_dash_rdt1580_cp_r_9566 Units=km Length=0.001 bus1=rdt1579.1 bus2=rdt1579_dash_rdt1580x.1 switch=n enabled=y phases=1 Linecode=fuse_1_3
New object=Fuse.Fuse_fuse_op_r_col_rdt1579_dash_rdt1580_cp_r_9566 monitoredobj=Line.fuse_op_r_col_rdt1579_dash_rdt1580_cp_r_9566 enabled=y ratedcurrent=165.0
New object=Line.fuse_op_r_col_rdt1583_dash_rdt1584_cp_r_9567 Units=km Length=0.001 bus1=rdt1583.3 bus2=rdt1583_dash_rdt1584x.3 switch=n enabled=y phases=1 Linecode=fuse_1_3
New object=Fuse.Fuse_fuse_op_r_col_rdt1583_dash_rdt1584_cp_r_9567 monitoredobj=Line.fuse_op_r_col_rdt1583_dash_rdt1584_cp_r_9567 enabled=y ratedcurrent=165.0
New object=Line.fuse_op_r_col_rdt1590_dash_rdt1594_cp_r_9568 Units=km Length=0.001 bus1=rdt1594.1 bus2=rdt1590_dash_rdt1594x.1 switch=n enabled=y phases=1 Linecode=fuse_1_3
New object=Fuse.Fuse_fuse_op_r_col_rdt1590_dash_rdt1594_cp_r_9568 monitoredobj=Line.fuse_op_r_col_rdt1590_dash_rdt1594_cp_r_9568 enabled=y ratedcurrent=165.0
New object=Line.fuse_op_r_col_rdt1598_dash_rdt1599_cp_r_9569 Units=km Length=0.001 bus1=rdt1599.2 bus2=rdt1598_dash_rdt1599x.2 switch=n enabled=y phases=1 Linecode=fuse_1_3
New object=Fuse.Fuse_fuse_op_r_col_rdt1598_dash_rdt1599_cp_r_9569 monitoredobj=Line.fuse_op_r_col_rdt1598_dash_rdt1599_cp_r_9569 enabled=y ratedcurrent=165.0
New object=Line.fuse_op_r_col_rdt1558_dash_rdt1603_cp_r_9570 Units=km Length=0.001 bus1=rdt1603.2 bus2=rdt1558_dash_rdt1603x.2 switch=n enabled=y phases=1 Linecode=fuse_1_3
New object=Fuse.Fuse_fuse_op_r_col_rdt1558_dash_rdt1603_cp_r_9570 monitoredobj=Line.fuse_op_r_col_rdt1558_dash_rdt1603_cp_r_9570 enabled=y ratedcurrent=165.0
New object=Line.fuse_op_r_col_rdt1603_dash_rdt1604_cp_r_9571 Units=km Length=0.001 bus1=rdt1603.1 bus2=rdt1603_dash_rdt1604x.1 switch=n enabled=y phases=1 Linecode=fuse_1_3
New object=Fuse.Fuse_fuse_op_r_col_rdt1603_dash_rdt1604_cp_r_9571 monitoredobj=Line.fuse_op_r_col_rdt1603_dash_rdt1604_cp_r_9571 enabled=y ratedcurrent=165.0
New object=Line.fuse_op_r_col_rdt1611_dash_rdt1613_cp_r_9572 Units=km Length=0.001 bus1=rdt1613.2 bus2=rdt1611_dash_rdt1613x.2 switch=n enabled=y phases=1 Linecode=fuse_1_3
New object=Fuse.Fuse_fuse_op_r_col_rdt1611_dash_rdt1613_cp_r_9572 monitoredobj=Line.fuse_op_r_col_rdt1611_dash_rdt1613_cp_r_9572 enabled=y ratedcurrent=165.0
New object=Line.fuse_op_r_col_rdt1618_dash_rdt1619_cp_r_9573 Units=km Length=0.001 bus1=rdt1618.3 bus2=rdt1618_dash_rdt1619x.3 switch=n enabled=y phases=1 Linecode=fuse_1_3
New object=Fuse.Fuse_fuse_op_r_col_rdt1618_dash_rdt1619_cp_r_9573 monitoredobj=Line.fuse_op_r_col_rdt1618_dash_rdt1619_cp_r_9573 enabled=y ratedcurrent=165.0
New object=Line.fuse_op_r_col_rdt1618_dash_rdt1620_cp_r_9574 Units=km Length=0.001 bus1=rdt1618.1 bus2=rdt1618_dash_rdt1620x.1 switch=n enabled=y phases=1 Linecode=fuse_1_3
New object=Fuse.Fuse_fuse_op_r_col_rdt1618_dash_rdt1620_cp_r_9574 monitoredobj=Line.fuse_op_r_col_rdt1618_dash_rdt1620_cp_r_9574 enabled=y ratedcurrent=165.0
New object=Line.fuse_op_r_col_rdt1629_dash_rdt1630_cp_r_9575 Units=km Length=0.001 bus1=rdt1629.3 bus2=rdt1629_dash_rdt1630x.3 switch=n enabled=y phases=1 Linecode=fuse_1_5
New object=Fuse.Fuse_fuse_op_r_col_rdt1629_dash_rdt1630_cp_r_9575 monitoredobj=Line.fuse_op_r_col_rdt1629_dash_rdt1630_cp_r_9575 enabled=y ratedcurrent=151.0
New object=Line.fuse_op_r_col_rdt1640_dash_rdt1641_cp_r_9576 Units=km Length=0.001 bus1=rdt1640.2 bus2=rdt1640_dash_rdt1641x.2 switch=n enabled=y phases=1 Linecode=fuse_1_3
...